/*--------------------------------*- C++ -*----------------------------------*\
| =========                 |                                                 |
| \\      /  F ield         | OpenFOAM: The Open Source CFD Toolbox           |
|  \\    /   O peration     | Version:  5                                     |
|   \\  /    A nd           | Web:      www.OpenFOAM.org                      |
|    \\/     M anipulation  |                                                 |
\*---------------------------------------------------------------------------*/
FoamFile
{
    version     2.0;
    format      ascii;
    class       dictionary;
    object      topoSetDict;
}

// * * * * * * * * * * * * * * * * * * * * * * * * * * * * * * * * * * * * * //

actions
(
   // Mesh_1
    {
        name    Mesh_1CellSet;
        type    cellSet;
        action  new;
        source  boxToCell;
        sourceInfo
        {
            box (1 0 -0.01)(2 1 0.01);
        }
    }
    {
        name    Mesh_1;
        type    cellZoneSet;
        action  new;
        source  setToCellZone;
        sourceInfo
        {
            set Mesh_1CellSet;
        }
    }

    // Mesh_2
    {
        name    Mesh_2CellSet;
        type    cellSet;
        action  new;
        source  boxToCell;
        sourceInfo
        {
            box (2 0 -0.01)(3 1 0.01);
        }
    }
    {
        name    Mesh_2;
        type    cellZoneSet;
        action  new;
        source  setToCellZone;
        sourceInfo
        {
            set Mesh_2CellSet;
        }
    }

);


// ************************************************************************* //
